
OS:Version,
  {54a6c8dc-af06-46b1-91c9-25c9e6b0e7fe}, !- Handle
  3.3.0;                                  !- Version Identifier

OS:Site,
  {2491fb1a-5327-41f8-80f4-4c8fdb8e1f5c}, !- Handle
  Red Bluff,                              !- Name
  40.15,                                  !- Latitude {deg}
  -122.25,                                !- Longitude {deg}
  -8,                                     !- Time Zone {hr}
  106,                                    !- Elevation {m}
  City;                                   !- Terrain

OS:SimulationControl,
  {5056a41d-29d9-4944-b27e-0c055f8ecb0c}, !- Handle
  Yes,                                    !- Do Zone Sizing Calculation
  Yes,                                    !- Do System Sizing Calculation
  Yes,                                    !- Do Plant Sizing Calculation
  No,                                     !- Run Simulation for Sizing Periods
  Yes,                                    !- Run Simulation for Weather File Run Periods
  0.04,                                   !- Loads Convergence Tolerance Value {W}
  0.2,                                    !- Temperature Convergence Tolerance Value {deltaC}
  FullInteriorAndExterior,                !- Solar Distribution
  25,                                     !- Maximum Number of Warmup Days
  6,                                      !- Minimum Number of Warmup Days
  No,                                     !- Do HVAC Sizing Simulation for Sizing Periods
  1;                                      !- Maximum Number of HVAC Sizing Simulation Passes

OS:Building,
  {530c7fa3-6bf4-4076-8e3a-c7412a17a8e1}, !- Handle
  Hospital,                               !- Name
  ,                                       !- Building Sector Type
  0,                                      !- North Axis {deg}
  ,                                       !- Nominal Floor to Floor Height {m}
  ,                                       !- Space Type Name
  {4c5faafa-e559-46c7-ae45-a603f0f53d6e}, !- Default Construction Set Name
  ;                                       !- Default Schedule Set Name

OS:Timestep,
  {d4a81cb7-7f1f-4fee-99ec-2c65b7837fcd}, !- Handle
  6;                                      !- Number of Timesteps per Hour

OS:ConvergenceLimits,
  {6678808b-9659-4848-b4b6-5979ddf1679b}, !- Handle
  1,                                      !- Minimum System Timestep {minutes}
  20;                                     !- Maximum HVAC Iterations

OS:Surface,
  {e0c3e515-928f-4264-badb-24d8b8d6555d}, !- Handle
  Corridor_NW_Flr_3_Wall_2_West,          !- Name
  Wall,                                   !- Surface Type
  {0a45bb2a-8adf-496e-9967-38ceba101f71}, !- Construction Name
  {fc9bc38a-0653-4847-9c31-a9215aaab039}, !- Space Name
  Adiabatic,                              !- Outside Boundary Condition
  ,                                       !- Outside Boundary Condition Object
  NoSun,                                  !- Sun Exposure
  NoWind,                                 !- Wind Exposure
  ,                                       !- View Factor to Ground
  ,                                       !- Number of Vertices
  4.572, 48.768, 12.8049,                 !- X,Y,Z Vertex 1 {m}
  4.572, 48.768, 8.5366,                  !- X,Y,Z Vertex 2 {m}
  4.572, 10.668, 8.5366,                  !- X,Y,Z Vertex 3 {m}
  4.572, 10.668, 12.8049;                 !- X,Y,Z Vertex 4 {m}

OS:Construction,
  {0a45bb2a-8adf-496e-9967-38ceba101f71}, !- Handle
  int_wall,                               !- Name
  {0bae242c-5f8a-426a-b874-ec6116e83715}, !- Surface Rendering Name
  {4ebdff72-5278-40b7-9992-d339a2a42eb6}, !- Layer 1
  {4ebdff72-5278-40b7-9992-d339a2a42eb6}; !- Layer 2

OS:Material,
  {4ebdff72-5278-40b7-9992-d339a2a42eb6}, !- Handle
  G01 13mm gypsum board,                  !- Name
  Smooth,                                 !- Roughness
  0.0127,                                 !- Thickness {m}
  0.16,                                   !- Conductivity {W/m-K}
  800,                                    !- Density {kg/m3}
  1090,                                   !- Specific Heat {J/kg-K}
  0.9,                                    !- Thermal Absorptance
  0.7,                                    !- Solar Absorptance
  0.5;                                    !- Visible Absorptance

OS:ThermalZone,
  {dc3b391e-c937-45f0-9317-4d6070d1bd46}, !- Handle
  Corridor_NW_Flr_3,                      !- Name
  1,                                      !- Multiplier
  4.2683,                                 !- Ceiling Height {m}
  2418.88,                                !- Volume {m3}
  ,                                       !- Floor Area {m2}
  ,                                       !- Zone Inside Convection Algorithm
  ,                                       !- Zone Outside Convection Algorithm
  ,                                       !- Zone Conditioning Equipment List Name
  {e70f49b3-8074-41d5-a48e-bfa592a6805c}, !- Zone Air Inlet Port List
  {c225906b-87b7-4b08-be54-ae3e490ecc2a}, !- Zone Air Exhaust Port List
  {4652451e-7877-40d3-b677-66d2736bd40d}, !- Zone Air Node Name
  {e287ccac-c414-4ab6-b393-d1ce972d95b9}, !- Zone Return Air Port List
  ,                                       !- Primary Daylighting Control Name
  ,                                       !- Fraction of Zone Controlled by Primary Daylighting Control
  ,                                       !- Secondary Daylighting Control Name
  ,                                       !- Fraction of Zone Controlled by Secondary Daylighting Control
  ,                                       !- Illuminance Map Name
  {cd308ca9-31ff-4fee-a9e0-4b24fa3aa15d}, !- Group Rendering Name
  {b1b8cdd2-0a27-4c85-890f-4b48e04c3b76}, !- Thermostat Name
  No;                                     !- Use Ideal Air Loads

OS:Node,
  {b0a66376-b955-4b46-8a03-c08f0e759d20}, !- Handle
  Node 1,                                 !- Name
  {4652451e-7877-40d3-b677-66d2736bd40d}, !- Inlet Port
  ;                                       !- Outlet Port

OS:Connection,
  {4652451e-7877-40d3-b677-66d2736bd40d}, !- Handle
  {dc3b391e-c937-45f0-9317-4d6070d1bd46}, !- Source Object
  11,                                     !- Outlet Port
  {b0a66376-b955-4b46-8a03-c08f0e759d20}, !- Target Object
  2;                                      !- Inlet Port

OS:PortList,
  {e70f49b3-8074-41d5-a48e-bfa592a6805c}, !- Handle
  {dc3b391e-c937-45f0-9317-4d6070d1bd46}; !- HVAC Component

OS:PortList,
  {c225906b-87b7-4b08-be54-ae3e490ecc2a}, !- Handle
  {dc3b391e-c937-45f0-9317-4d6070d1bd46}; !- HVAC Component

OS:PortList,
  {e287ccac-c414-4ab6-b393-d1ce972d95b9}, !- Handle
  {dc3b391e-c937-45f0-9317-4d6070d1bd46}; !- HVAC Component

OS:Sizing:Zone,
  {a0e9df14-2617-4db9-b871-864384a9e4f5}, !- Handle
  {dc3b391e-c937-45f0-9317-4d6070d1bd46}, !- Zone or ZoneList Name
  SupplyAirTemperature,                   !- Zone Cooling Design Supply Air Temperature Input Method
  12.8,                                   !- Zone Cooling Design Supply Air Temperature {C}
  11.11,                                  !- Zone Cooling Design Supply Air Temperature Difference {deltaC}
  SupplyAirTemperature,                   !- Zone Heating Design Supply Air Temperature Input Method
  40,                                     !- Zone Heating Design Supply Air Temperature {C}
  11.11,                                  !- Zone Heating Design Supply Air Temperature Difference {deltaC}
  0.0085,                                 !- Zone Cooling Design Supply Air Humidity Ratio {kg-H2O/kg-air}
  0.008,                                  !- Zone Heating Design Supply Air Humidity Ratio {kg-H2O/kg-air}
  ,                                       !- Zone Heating Sizing Factor
  ,                                       !- Zone Cooling Sizing Factor
  DesignDay,                              !- Cooling Design Air Flow Method
  0,                                      !- Cooling Design Air Flow Rate {m3/s}
  ,                                       !- Cooling Minimum Air Flow per Zone Floor Area {m3/s-m2}
  0,                                      !- Cooling Minimum Air Flow {m3/s}
  0,                                      !- Cooling Minimum Air Flow Fraction
  DesignDay,                              !- Heating Design Air Flow Method
  0,                                      !- Heating Design Air Flow Rate {m3/s}
  ,                                       !- Heating Maximum Air Flow per Zone Floor Area {m3/s-m2}
  ,                                       !- Heating Maximum Air Flow {m3/s}
  ,                                       !- Heating Maximum Air Flow Fraction
  No,                                     !- Account for Dedicated Outdoor Air System
  NeutralSupplyAir,                       !- Dedicated Outdoor Air System Control Strategy
  autosize,                               !- Dedicated Outdoor Air Low Setpoint Temperature for Design {C}
  autosize,                               !- Dedicated Outdoor Air High Setpoint Temperature for Design {C}
  1,                                      !- Design Zone Air Distribution Effectiveness in Cooling Mode
  1,                                      !- Design Zone Air Distribution Effectiveness in Heating Mode
  ,                                       !- Design Zone Secondary Recirculation Fraction {dimensionless}
  0.6;                                    !- Design Minimum Zone Ventilation Efficiency {dimensionless}

OS:ZoneHVAC:EquipmentList,
  {58331381-3009-425f-82b0-cccef0bd5864}, !- Handle
  Zone HVAC Equipment List 1,             !- Name
  {dc3b391e-c937-45f0-9317-4d6070d1bd46}; !- Thermal Zone

OS:Space,
  {fc9bc38a-0653-4847-9c31-a9215aaab039}, !- Handle
  Corridor_NW_Flr_3 Space,                !- Name
  ,                                       !- Space Type Name
  ,                                       !- Default Construction Set Name
  ,                                       !- Default Schedule Set Name
  0,                                      !- Direction of Relative North {deg}
  0,                                      !- X Origin {m}
  0,                                      !- Y Origin {m}
  0,                                      !- Z Origin {m}
  ,                                       !- Building Story Name
  {dc3b391e-c937-45f0-9317-4d6070d1bd46}, !- Thermal Zone Name
  Yes,                                    !- Part of Total Floor Area
  {d7c3a065-85ca-46b3-adb4-012220b0761e}; !- Design Specification Outdoor Air Object Name

OS:ThermostatSetpoint:DualSetpoint,
  {b1b8cdd2-0a27-4c85-890f-4b48e04c3b76}, !- Handle
  Corridor_NW_Flr_3 DualSPSched,          !- Name
  {0ff6a66f-db28-4913-841d-ed04280ea2e3}, !- Heating Setpoint Temperature Schedule Name
  {9ea183c2-7c46-404b-8282-c6ebfb8f1348}; !- Cooling Setpoint Temperature Schedule Name

OS:Schedule:Compact,
  {0ff6a66f-db28-4913-841d-ed04280ea2e3}, !- Handle
  HTGSETP_SCH,                            !- Name
  {f6a054e4-0c5b-4b9c-ba8b-31fd075c13a1}, !- Schedule Type Limits Name
  Through: 12/31,                         !- Field 1
  For: ALLDays,                           !- Field 2
  Until: 24:00,                           !- Field 3
  21.;                                    !- Field 4

OS:ScheduleTypeLimits,
  {f6a054e4-0c5b-4b9c-ba8b-31fd075c13a1}, !- Handle
  Temperature,                            !- Name
  -60,                                    !- Lower Limit Value
  200,                                    !- Upper Limit Value
  Continuous,                             !- Numeric Type
  Temperature;                            !- Unit Type

OS:Schedule:Compact,
  {9ea183c2-7c46-404b-8282-c6ebfb8f1348}, !- Handle
  CLGSETP_SCH,                            !- Name
  {f6a054e4-0c5b-4b9c-ba8b-31fd075c13a1}, !- Schedule Type Limits Name
  Through: 12/31,                         !- Field 1
  For: AllDays,                           !- Field 2
  Until: 24:00,                           !- Field 3
  24.0;                                   !- Field 4

OS:HeatBalanceAlgorithm,
  {619e13cb-0b11-4de5-8a00-1c187dd39577}, !- Handle
  ConductionTransferFunction,             !- Algorithm
  200;                                    !- Surface Temperature Upper Limit {C}

OS:ShadowCalculation,
  {8d68bbcb-a9d6-484e-a02e-8da46662ee93}, !- Handle
  PolygonClipping,                        !- Shading Calculation Method
  Periodic,                               !- Shading Calculation Update Frequency Method
  30,                                     !- Shading Calculation Update Frequency
  15000,                                  !- Maximum Figures in Shadow Overlap Calculations
  ,                                       !- Polygon Clipping Algorithm
  512,                                    !- Pixel Counting Resolution
  ,                                       !- Sky Diffuse Modeling Algorithm
  No,                                     !- Output External Shading Calculation Results
  No,                                     !- Disable Self-Shading Within Shading Zone Groups
  No;                                     !- Disable Self-Shading From Shading Zone Groups to Other Zones

OS:RunPeriod,
  {cd0c1005-2e4f-4ab7-a5b1-62fc606a30c7}, !- Handle
  RUNPERIOD 1,                            !- Name
  1,                                      !- Begin Month
  1,                                      !- Begin Day of Month
  12,                                     !- End Month
  31,                                     !- End Day of Month
  No,                                     !- Use Weather File Holidays and Special Days
  No,                                     !- Use Weather File Daylight Saving Period
  No,                                     !- Apply Weekend Holiday Rule
  Yes,                                    !- Use Weather File Rain Indicators
  Yes,                                    !- Use Weather File Snow Indicators
  ;                                       !- Number of Times Runperiod to be Repeated

OS:YearDescription,
  {bd6331d0-69ad-476d-ba5d-59223fe16875}, !- Handle
  ,                                       !- Calendar Year
  Sunday;                                 !- Day of Week for Start Day

OS:Material,
  {30aa7b2f-061b-4f2a-a58b-99955d52c6de}, !- Handle
  F13 Built-up roofing,                   !- Name
  Rough,                                  !- Roughness
  0.0095,                                 !- Thickness {m}
  0.16,                                   !- Conductivity {W/m-K}
  1120,                                   !- Density {kg/m3}
  1460,                                   !- Specific Heat {J/kg-K}
  0.9,                                    !- Thermal Absorptance
  0.7;                                    !- Solar Absorptance

OS:RunPeriodControl:SpecialDays,
  {aa17be07-074d-4b2a-97fd-baff108402dc}, !- Handle
  New Years Day,                          !- Name
  January 1,                              !- Start Date
  1,                                      !- Duration {days}
  Holiday;                                !- Special Day Type

OS:RunPeriodControl:SpecialDays,
  {6e2fa1e6-0572-4321-b794-ede47a81d77f}, !- Handle
  Veterans Day,                           !- Name
  November 11,                            !- Start Date
  1,                                      !- Duration {days}
  Holiday;                                !- Special Day Type

OS:RunPeriodControl:SpecialDays,
  {5e6f61f0-d3ef-4364-8ba3-c7399e648870}, !- Handle
  Christmas,                              !- Name
  December 25,                            !- Start Date
  1,                                      !- Duration {days}
  Holiday;                                !- Special Day Type

OS:RunPeriodControl:SpecialDays,
  {b58c1fe8-3f89-42f0-b59f-4f4507054c49}, !- Handle
  Independence Day,                       !- Name
  July 4,                                 !- Start Date
  1,                                      !- Duration {days}
  Holiday;                                !- Special Day Type

OS:RunPeriodControl:SpecialDays,
  {4b40e966-0e1b-4ad5-a8c3-d41034e461ca}, !- Handle
  MLK Day,                                !- Name
  3rd Monday in January,                  !- Start Date
  1,                                      !- Duration {days}
  Holiday;                                !- Special Day Type

OS:People:Definition,
  {b5b9d363-2f54-4358-95eb-c527f216447b}, !- Handle
  PhysTherapy_Flr_3 Definition,           !- Name
  People,                                 !- Number of People Calculation Method
  26.2404,                                !- Number of People {people}
  ,                                       !- People per Space Floor Area {person/m2}
  ,                                       !- Space Floor Area per Person {m2/person}
  0.3,                                    !- Fraction Radiant
  ,                                       !- Sensible Heat Fraction
  ,                                       !- Carbon Dioxide Generation Rate {m3/s-W}
  No,                                     !- Enable ASHRAE 55 Comfort Warnings
  ZoneAveraged,                           !- Mean Radiant Temperature Calculation Type
  FANGER;                                 !- Thermal Comfort Model Type 1

OS:People,
  {cc4c5d54-85b9-42a9-9db9-5904b71d0fcd}, !- Handle
  PhysTherapy_Flr_3,                      !- Name
  {b5b9d363-2f54-4358-95eb-c527f216447b}, !- People Definition Name
  {3d42cae6-943a-4399-b55c-6065c7d71dbc}, !- Space or SpaceType Name
  {fa1d3b76-7a7c-49ed-93b2-3f7825333174}, !- Number of People Schedule Name
  {8d660540-c8fa-4707-a1be-723ae243116d}, !- Activity Level Schedule Name
  ,                                       !- Surface Name/Angle Factor List Name
  {02bde384-7a1d-4f8c-9336-03e9bb9869e6}, !- Work Efficiency Schedule Name
  {c8a235ca-4171-452c-bd75-4e1c328799d6}, !- Clothing Insulation Schedule Name
  {36ea46f5-fe6e-4ae7-b435-642ed7578bd8}, !- Air Velocity Schedule Name
  1;                                      !- Multiplier

OS:ThermalZone,
  {06d8455a-630b-4497-836a-da2e0934984f}, !- Handle
  PhysTherapy_Flr_3,                      !- Name
  1,                                      !- Multiplier
  4.2683,                                 !- Ceiling Height {m}
  2081.82,                                !- Volume {m3}
  ,                                       !- Floor Area {m2}
  ,                                       !- Zone Inside Convection Algorithm
  ,                                       !- Zone Outside Convection Algorithm
  ,                                       !- Zone Conditioning Equipment List Name
  {0e70bbd8-e84b-4507-9b9a-cfd450340e63}, !- Zone Air Inlet Port List
  {315313bc-959a-482a-a588-a2da8c176f1a}, !- Zone Air Exhaust Port List
  {b76db2c8-bf53-40f0-8400-df8e3f3ffd51}, !- Zone Air Node Name
  {e80ee596-966a-4cde-bd1b-92a0012cc7cf}, !- Zone Return Air Port List
  ,                                       !- Primary Daylighting Control Name
  ,                                       !- Fraction of Zone Controlled by Primary Daylighting Control
  ,                                       !- Secondary Daylighting Control Name
  ,                                       !- Fraction of Zone Controlled by Secondary Daylighting Control
  ,                                       !- Illuminance Map Name
  {94dea140-4ab9-4a17-b8e4-8b4bb64e976c}, !- Group Rendering Name
  {c215cabf-2a8d-4616-b1cc-150ac904059c}, !- Thermostat Name
  No;                                     !- Use Ideal Air Loads

OS:Node,
  {b630ae26-0068-447e-8ceb-e56adcb27ebd}, !- Handle
  Node 2,                                 !- Name
  {b76db2c8-bf53-40f0-8400-df8e3f3ffd51}, !- Inlet Port
  ;                                       !- Outlet Port

OS:Connection,
  {b76db2c8-bf53-40f0-8400-df8e3f3ffd51}, !- Handle
  {06d8455a-630b-4497-836a-da2e0934984f}, !- Source Object
  11,                                     !- Outlet Port
  {b630ae26-0068-447e-8ceb-e56adcb27ebd}, !- Target Object
  2;                                      !- Inlet Port

OS:PortList,
  {0e70bbd8-e84b-4507-9b9a-cfd450340e63}, !- Handle
  {06d8455a-630b-4497-836a-da2e0934984f}; !- HVAC Component

OS:PortList,
  {315313bc-959a-482a-a588-a2da8c176f1a}, !- Handle
  {06d8455a-630b-4497-836a-da2e0934984f}; !- HVAC Component

OS:PortList,
  {e80ee596-966a-4cde-bd1b-92a0012cc7cf}, !- Handle
  {06d8455a-630b-4497-836a-da2e0934984f}; !- HVAC Component

OS:Sizing:Zone,
  {41f6cdc3-e6f7-4767-be0c-f188abd12dea}, !- Handle
  {06d8455a-630b-4497-836a-da2e0934984f}, !- Zone or ZoneList Name
  SupplyAirTemperature,                   !- Zone Cooling Design Supply Air Temperature Input Method
  12.8,                                   !- Zone Cooling Design Supply Air Temperature {C}
  11.11,                                  !- Zone Cooling Design Supply Air Temperature Difference {deltaC}
  SupplyAirTemperature,                   !- Zone Heating Design Supply Air Temperature Input Method
  40,                                     !- Zone Heating Design Supply Air Temperature {C}
  11.11,                                  !- Zone Heating Design Supply Air Temperature Difference {deltaC}
  0.0085,                                 !- Zone Cooling Design Supply Air Humidity Ratio {kg-H2O/kg-air}
  0.008,                                  !- Zone Heating Design Supply Air Humidity Ratio {kg-H2O/kg-air}
  ,                                       !- Zone Heating Sizing Factor
  ,                                       !- Zone Cooling Sizing Factor
  DesignDay,                              !- Cooling Design Air Flow Method
  0,                                      !- Cooling Design Air Flow Rate {m3/s}
  ,                                       !- Cooling Minimum Air Flow per Zone Floor Area {m3/s-m2}
  0,                                      !- Cooling Minimum Air Flow {m3/s}
  0,                                      !- Cooling Minimum Air Flow Fraction
  DesignDay,                              !- Heating Design Air Flow Method
  0,                                      !- Heating Design Air Flow Rate {m3/s}
  ,                                       !- Heating Maximum Air Flow per Zone Floor Area {m3/s-m2}
  ,                                       !- Heating Maximum Air Flow {m3/s}
  ,                                       !- Heating Maximum Air Flow Fraction
  No,                                     !- Account for Dedicated Outdoor Air System
  NeutralSupplyAir,                       !- Dedicated Outdoor Air System Control Strategy
  autosize,                               !- Dedicated Outdoor Air Low Setpoint Temperature for Design {C}
  autosize,                               !- Dedicated Outdoor Air High Setpoint Temperature for Design {C}
  1,                                      !- Design Zone Air Distribution Effectiveness in Cooling Mode
  1,                                      !- Design Zone Air Distribution Effectiveness in Heating Mode
  ,                                       !- Design Zone Secondary Recirculation Fraction {dimensionless}
  0.6;                                    !- Design Minimum Zone Ventilation Efficiency {dimensionless}

OS:ZoneHVAC:EquipmentList,
  {f9eeeb32-349f-47d1-8ad9-f688021fafde}, !- Handle
  Zone HVAC Equipment List 2,             !- Name
  {06d8455a-630b-4497-836a-da2e0934984f}; !- Thermal Zone

OS:Space,
  {3d42cae6-943a-4399-b55c-6065c7d71dbc}, !- Handle
  PhysTherapy_Flr_3 Space,                !- Name
  ,                                       !- Space Type Name
  ,                                       !- Default Construction Set Name
  ,                                       !- Default Schedule Set Name
  0,                                      !- Direction of Relative North {deg}
  0,                                      !- X Origin {m}
  0,                                      !- Y Origin {m}
  0,                                      !- Z Origin {m}
  ,                                       !- Building Story Name
  {06d8455a-630b-4497-836a-da2e0934984f}, !- Thermal Zone Name
  Yes,                                    !- Part of Total Floor Area
  {f9b256d8-d090-46f0-b5d6-9cc3caba8df8}; !- Design Specification Outdoor Air Object Name

OS:ThermostatSetpoint:DualSetpoint,
  {c215cabf-2a8d-4616-b1cc-150ac904059c}, !- Handle
  PhysTherapy_Flr_3 DualSPSched,          !- Name
  {0ff6a66f-db28-4913-841d-ed04280ea2e3}, !- Heating Setpoint Temperature Schedule Name
  {9ea183c2-7c46-404b-8282-c6ebfb8f1348}; !- Cooling Setpoint Temperature Schedule Name

OS:Schedule:Compact,
  {fa1d3b76-7a7c-49ed-93b2-3f7825333174}, !- Handle
  BLDG_OCC_SCH,                           !- Name
  {e41f4ecb-20f7-4e01-9648-9fdf7fe0e90c}, !- Schedule Type Limits Name
  Through: 12/31,                         !- Field 1
  For: Weekdays,                          !- Field 2
  Until: 07:00,                           !- Field 3
  0.0,                                    !- Field 4
  Until: 08:00,                           !- Field 5
  0.1,                                    !- Field 6
  Until: 09:00,                           !- Field 7
  0.5,                                    !- Field 8
  Until: 17:00,                           !- Field 9
  0.8,                                    !- Field 10
  Until: 18:00,                           !- Field 11
  0.5,                                    !- Field 12
  Until: 20:00,                           !- Field 13
  0.3,                                    !- Field 14
  Until: 22:00,                           !- Field 15
  0.2,                                    !- Field 16
  Until: 24:00,                           !- Field 17
  0.0,                                    !- Field 18
  For: SummerDesignDay,                   !- Field 19
  Until: 24:00,                           !- Field 20
  1.0,                                    !- Field 21
  For: WinterDesignDay,                   !- Field 22
  Until: 24:00,                           !- Field 23
  0.0,                                    !- Field 24
  For: Saturday,                          !- Field 25
  Until: 07:00,                           !- Field 26
  0.0,                                    !- Field 27
  Until: 08:00,                           !- Field 28
  0.1,                                    !- Field 29
  Until: 09:00,                           !- Field 30
  0.3,                                    !- Field 31
  Until: 17:00,                           !- Field 32
  0.4,                                    !- Field 33
  Until: 19:00,                           !- Field 34
  0.1,                                    !- Field 35
  Until: 24:00,                           !- Field 36
  0.0,                                    !- Field 37
  For: Sunday Holidays AllOtherDays,      !- Field 38
  Until: 08:00,                           !- Field 39
  0.0,                                    !- Field 40
  Until: 16:00,                           !- Field 41
  0.05,                                   !- Field 42
  Until: 24:00,                           !- Field 43
  0.0;                                    !- Field 44

OS:ScheduleTypeLimits,
  {e41f4ecb-20f7-4e01-9648-9fdf7fe0e90c}, !- Handle
  Fraction,                               !- Name
  0,                                      !- Lower Limit Value
  1,                                      !- Upper Limit Value
  Continuous;                             !- Numeric Type

OS:Schedule:Compact,
  {8d660540-c8fa-4707-a1be-723ae243116d}, !- Handle
  ACTIVITY_SCH,                           !- Name
  {504d454e-4d10-45f9-a57c-a850d89f1d4f}, !- Schedule Type Limits Name
  Through: 12/31,                         !- Field 1
  For: AllDays,                           !- Field 2
  Until: 24:00,                           !- Field 3
  120.;                                   !- Field 4

OS:ScheduleTypeLimits,
  {12ede1ac-aff9-4dd1-94a5-e8afe0316443}, !- Handle
  Schedule Type Limits 1;                 !- Name

OS:ScheduleTypeLimits,
  {504d454e-4d10-45f9-a57c-a850d89f1d4f}, !- Handle
  ActivityLevel,                          !- Name
  0,                                      !- Lower Limit Value
  ,                                       !- Upper Limit Value
  Continuous,                             !- Numeric Type
  ActivityLevel;                          !- Unit Type

OS:Schedule:Compact,
  {02bde384-7a1d-4f8c-9336-03e9bb9869e6}, !- Handle
  WORK_EFF_SCH,                           !- Name
  {e41f4ecb-20f7-4e01-9648-9fdf7fe0e90c}, !- Schedule Type Limits Name
  Through: 12/31,                         !- Field 1
  For: AllDays,                           !- Field 2
  Until: 24:00,                           !- Field 3
  0.0;                                    !- Field 4

OS:Schedule:Compact,
  {c8a235ca-4171-452c-bd75-4e1c328799d6}, !- Handle
  CLOTHING_SCH,                           !- Name
  {2954aff2-60c0-43c2-9c8c-9f6eabdae6f4}, !- Schedule Type Limits Name
  Through: 04/30,                         !- Field 1
  For: AllDays,                           !- Field 2
  Until: 24:00,                           !- Field 3
  1.0,                                    !- Field 4
  Through: 09/30,                         !- Field 5
  For: AllDays,                           !- Field 6
  Until: 24:00,                           !- Field 7
  0.5,                                    !- Field 8
  Through: 12/31,                         !- Field 9
  For: AllDays,                           !- Field 10
  Until: 24:00,                           !- Field 11
  1.0;                                    !- Field 12

OS:ScheduleTypeLimits,
  {3eb4b708-4640-48c5-9d95-7d215f0fc4d1}, !- Handle
  Schedule Type Limits 2;                 !- Name

OS:ScheduleTypeLimits,
  {2954aff2-60c0-43c2-9c8c-9f6eabdae6f4}, !- Handle
  ClothingInsulation,                     !- Name
  0,                                      !- Lower Limit Value
  ,                                       !- Upper Limit Value
  Continuous,                             !- Numeric Type
  ClothingInsulation;                     !- Unit Type

OS:Schedule:Compact,