
OS:Version,
  {10539f1a-3739-4cf8-b298-4778104d4c7d}, !- Handle
  3.3.0;                                  !- Version Identifier

OS:Site,
  {263ed7e6-2880-438d-ba51-1e6cf8c54c12}, !- Handle
  Red Bluff Municipal Arpt,               !- Name
  40.15,                                  !- Latitude {deg}
  40.15,                                  !- Longitude {deg}
  -8,                                     !- Time Zone {hr}
  106,                                    !- Elevation {m}
  ;                                       !- Terrain

OS:YearDescription,
  {b1a45b8c-7a12-42de-bb49-c60e8e6a3c22}, !- Handle
  ,                                       !- Calendar Year
  Sunday;                                 !- Day of Week for Start Day

OS:ClimateZones,
  {ffe83453-6309-44da-8ed7-43a337dd3826}, !- Handle
  ASHRAE,                                 !- Climate Zone Institution Name 1
  ANSI/ASHRAE Standard 169,               !- Climate Zone Document Name 1
  2006,                                   !- Climate Zone Document Year 1
  ,                                       !- Climate Zone Value 1
  CEC,                                    !- Climate Zone Institution Name 2
  California Climate Zone Descriptions,   !- Climate Zone Document Name 2
  1995,                                   !- Climate Zone Document Year 2
  11;                                     !- Climate Zone Value 2

OS:Building,
  {e61dbb67-e394-4871-9736-122f09b3cdbe}, !- Handle
  Building 1,                             !- Name
  ,                                       !- Building Sector Type
  -0,                                     !- North Axis {deg}
  ,                                       !- Nominal Floor to Floor Height {m}
  ,                                       !- Space Type Name
  {49002a34-876e-4dde-9a30-b7cad5880558}, !- Default Construction Set Name
  ;                                       !- Default Schedule Set Name

OS:Facility,
  {3adaf611-5a6c-42ff-9e89-b3e6d62a1035}; !- Handle

OS:SimulationControl,
  {91f69690-ddd5-4800-ab0c-5d9744175234}; !- Handle

OS:Sizing:Parameters,
  {13acd7a7-0be1-4b9c-8b52-b516c7d2518d}, !- Handle
  1.25,                                   !- Heating Sizing Factor
  1.15;                                   !- Cooling Sizing Factor

OS:Timestep,
  {438b9c23-4d3c-4b0d-adc5-14184b299135}, !- Handle
  1;                                      !- Number of Timesteps per Hour

OS:ShadowCalculation,
  {0cf66a1a-7956-48ce-8718-c5badecfce52}, !- Handle
  PolygonClipping,                        !- Shading Calculation Method
  ,                                       !- Shading Calculation Update Frequency Method
  20,                                     !- Shading Calculation Update Frequency
  15000,                                  !- Maximum Figures in Shadow Overlap Calculations
  ,                                       !- Polygon Clipping Algorithm
  512,                                    !- Pixel Counting Resolution
  ,                                       !- Sky Diffuse Modeling Algorithm
  No,                                     !- Output External Shading Calculation Results
  No,                                     !- Disable Self-Shading Within Shading Zone Groups
  No;                                     !- Disable Self-Shading From Shading Zone Groups to Other Zones

OS:HeatBalanceAlgorithm,
  {a7d3c575-3aa7-4cc0-92cd-1f99db68cf11}, !- Handle
  ConductionTransferFunction,             !- Algorithm
  200;                                    !- Surface Temperature Upper Limit {C}

OS:RunPeriod,
  {8b2bde0a-9799-4a4a-b4f4-4652edba5109}, !- Handle
  Run Period 1,                           !- Name
  1,                                      !- Begin Month
  1,                                      !- Begin Day of Month
  12,                                     !- End Month
  31,                                     !- End Day of Month
  ,                                       !- Use Weather File Holidays and Special Days
  ,                                       !- Use Weather File Daylight Saving Period
  ,                                       !- Apply Weekend Holiday Rule
  ,                                       !- Use Weather File Rain Indicators
  ,                                       !- Use Weather File Snow Indicators
  ;                                       !- Number of Times Runperiod to be Repeated

OS:LifeCycleCost:Parameters,
  {02189f77-6a46-4cc2-9b61-4f7f9dbff093}, !- Handle
  ,                                       !- Analysis Type
  ,                                       !- Discounting Convention
  ,                                       !- Inflation Approach
  ,                                       !- Real Discount Rate
  ,                                       !- Nominal Discount Rate
  ,                                       !- Inflation
  ,                                       !- Base Date Month
  ,                                       !- Base Date Year
  ,                                       !- Service Date Month
  ,                                       !- Service Date Year
  ;                                       !- Length of Study Period in Years

OS:WeatherFile,
  {9c9e6fe1-5298-4add-a6b0-041bb88f3986}, !- Handle
  Red Bluff Municipal Arpt,               !- City
  CA,                                     !- State Province Region
  USA,                                    !- Country
  TMY3,                                   !- Data Source
  725910,                                 !- WMO Number
  40.15,                                  !- Latitude {deg}
  -122.25,                                !- Longitude {deg}
  -8,                                     !- Time Zone {hr}
  106,                                    !- Elevation {m}
  C:/Users/mmacmill/AppData/Local/Temp/1/osmodel-1648238487-1/resources/files/Red_Bluff.epw, !- Url
  3A27203F,                               !- Checksum
  ,                                       !- Start Date Actual Year
  Sunday;                                 !- Start Day of Week

OS:SizingPeriod:DesignDay,
  {49c2a0d8-0542-46e0-8eec-7e8e1d7646b9}, !- Handle
  Red Bluff Municipal Arpt Ann Htg 99.6% Condns DB, !- Name
  -1.1,                                   !- Maximum Dry-Bulb Temperature {C}
  0,                                      !- Daily Dry-Bulb Temperature Range {deltaC}
  100058,                                 !- Barometric Pressure {Pa}
  2.3,                                    !- Wind Speed {m/s}
  320,                                    !- Wind Direction {deg}
  0,                                      !- Sky Clearness
  No,                                     !- Rain Indicator
  No,                                     !- Snow Indicator
  21,                                     !- Day of Month
  12,                                     !- Month
  WinterDesignDay,                        !- Day Type
  No,                                     !- Daylight Saving Time Indicator
  Wetbulb,                                !- Humidity Condition Type
  ,                                       !- Humidity Condition Day Schedule Name
  -1.1,                                   !- Wetbulb or DewPoint at Maximum Dry-Bulb {C}
  ,                                       !- Humidity Ratio at Maximum Dry-Bulb {kgWater/kgDryAir}
  ,                                       !- Enthalpy at Maximum Dry-Bulb {J/kg}
  DefaultMultipliers,                     !- Dry-Bulb Temperature Range Modifier Type
  ,                                       !- Dry-Bulb Temperature Range Modifier Day Schedule Name
  ASHRAEClearSky;                         !- Solar Model Indicator

OS:SizingPeriod:DesignDay,
  {82e5c9ac-7759-4bfa-beeb-a005398b002e}, !- Handle
  Red Bluff Municipal Arpt Ann Hum_n 99.6% Condns DP=>MCDB, !- Name
  10.8,                                   !- Maximum Dry-Bulb Temperature {C}
  0,                                      !- Daily Dry-Bulb Temperature Range {deltaC}
  100058,                                 !- Barometric Pressure {Pa}
  2.3,                                    !- Wind Speed {m/s}
  320,                                    !- Wind Direction {deg}
  0,                                      !- Sky Clearness
  No,                                     !- Rain Indicator
  No,                                     !- Snow Indicator
  21,                                     !- Day of Month
  12,                                     !- Month
  WinterDesignDay,                        !- Day Type
  No,                                     !- Daylight Saving Time Indicator
  Dewpoint,                               !- Humidity Condition Type
  ,                                       !- Humidity Condition Day Schedule Name
  -9.9,                                   !- Wetbulb or DewPoint at Maximum Dry-Bulb {C}
  ,                                       !- Humidity Ratio at Maximum Dry-Bulb {kgWater/kgDryAir}
  ,                                       !- Enthalpy at Maximum Dry-Bulb {J/kg}
  DefaultMultipliers,                     !- Dry-Bulb Temperature Range Modifier Type
  ,                                       !- Dry-Bulb Temperature Range Modifier Day Schedule Name
  ASHRAEClearSky;                         !- Solar Model Indicator

OS:SizingPeriod:DesignDay,
  {63b63f1f-5c96-4bfb-9103-71c4c4afa00d}, !- Handle
  Red Bluff Municipal Arpt Ann Htg Wind 99.6% Condns WS=>MCDB, !- Name
  11.3,                                   !- Maximum Dry-Bulb Temperature {C}
  0,                                      !- Daily Dry-Bulb Temperature Range {deltaC}
  100058,                                 !- Barometric Pressure {Pa}
  15.6,                                   !- Wind Speed {m/s}
  320,                                    !- Wind Direction {deg}
  0,                                      !- Sky Clearness
  No,                                     !- Rain Indicator
  No,                                     !- Snow Indicator
  21,                                     !- Day of Month
  12,                                     !- Month
  WinterDesignDay,                        !- Day Type
  No,                                     !- Daylight Saving Time Indicator
  Wetbulb,                                !- Humidity Condition Type
  ,                                       !- Humidity Condition Day Schedule Name
  11.3,                                   !- Wetbulb or DewPoint at Maximum Dry-Bulb {C}
  ,                                       !- Humidity Ratio at Maximum Dry-Bulb {kgWater/kgDryAir}
  ,                                       !- Enthalpy at Maximum Dry-Bulb {J/kg}
  DefaultMultipliers,                     !- Dry-Bulb Temperature Range Modifier Type
  ,                                       !- Dry-Bulb Temperature Range Modifier Day Schedule Name
  ASHRAEClearSky;                         !- Solar Model Indicator

OS:SizingPeriod:DesignDay,
  {497dc915-c24e-467f-b56e-1f4d90f256d8}, !- Handle
  Red Bluff Municipal Arpt Ann Clg .4% Condns DB=>MWB, !- Name
  40.6,                                   !- Maximum Dry-Bulb Temperature {C}
  16.9,                                   !- Daily Dry-Bulb Temperature Range {deltaC}
  100058,                                 !- Barometric Pressure {Pa}
  3.9,                                    !- Wind Speed {m/s}
  150,                                    !- Wind Direction {deg}
  ,                                       !- Sky Clearness
  No,                                     !- Rain Indicator
  No,                                     !- Snow Indicator
  21,                                     !- Day of Month
  7,                                      !- Month
  SummerDesignDay,                        !- Day Type
  No,                                     !- Daylight Saving Time Indicator
  Wetbulb,                                !- Humidity Condition Type
  ,                                       !- Humidity Condition Day Schedule Name
  20.9,                                   !- Wetbulb or DewPoint at Maximum Dry-Bulb {C}
  ,                                       !- Humidity Ratio at Maximum Dry-Bulb {kgWater/kgDryAir}
  ,                                       !- Enthalpy at Maximum Dry-Bulb {J/kg}
  DefaultMultipliers,                     !- Dry-Bulb Temperature Range Modifier Type
  ,                                       !- Dry-Bulb Temperature Range Modifier Day Schedule Name
  ASHRAETau,                              !- Solar Model Indicator
  ,                                       !- Beam Solar Day Schedule Name
  ,                                       !- Diffuse Solar Day Schedule Name
  0.364,                                  !- ASHRAE Clear Sky Optical Depth for Beam Irradiance {dimensionless}
  2.504;                                  !- ASHRAE Clear Sky Optical Depth for Diffuse Irradiance {dimensionless}

OS:SizingPeriod:DesignDay,
  {b8660856-b525-430b-a202-443c3de4885a}, !- Handle
  Red Bluff Municipal Arpt Ann Clg .4% Condns WB=>MDB, !- Name
  35.7,                                   !- Maximum Dry-Bulb Temperature {C}
  16.9,                                   !- Daily Dry-Bulb Temperature Range {deltaC}
  100058,                                 !- Barometric Pressure {Pa}
  3.9,                                    !- Wind Speed {m/s}
  150,                                    !- Wind Direction {deg}
  ,                                       !- Sky Clearness
  No,                                     !- Rain Indicator
  No,                                     !- Snow Indicator
  21,                                     !- Day of Month
  7,                                      !- Month
  SummerDesignDay,                        !- Day Type
  No,                                     !- Daylight Saving Time Indicator
  Wetbulb,                                !- Humidity Condition Type
  ,                                       !- Humidity Condition Day Schedule Name
  22.7,                                   !- Wetbulb or DewPoint at Maximum Dry-Bulb {C}
  ,                                       !- Humidity Ratio at Maximum Dry-Bulb {kgWater/kgDryAir}
  ,                                       !- Enthalpy at Maximum Dry-Bulb {J/kg}
  DefaultMultipliers,                     !- Dry-Bulb Temperature Range Modifier Type
  ,                                       !- Dry-Bulb Temperature Range Modifier Day Schedule Name
  ASHRAETau,                              !- Solar Model Indicator
  ,                                       !- Beam Solar Day Schedule Name
  ,                                       !- Diffuse Solar Day Schedule Name
  0.364,                                  !- ASHRAE Clear Sky Optical Depth for Beam Irradiance {dimensionless}
  2.504;                                  !- ASHRAE Clear Sky Optical Depth for Diffuse Irradiance {dimensionless}

OS:SizingPeriod:DesignDay,
  {8b846067-591e-419a-b529-860f492882b9}, !- Handle
  Red Bluff Municipal Arpt Ann Clg .4% Condns DP=>MDB, !- Name
  27.7,                                   !- Maximum Dry-Bulb Temperature {C}
  16.9,                                   !- Daily Dry-Bulb Temperature Range {deltaC}
  100058,                                 !- Barometric Pressure {Pa}
  3.9,                                    !- Wind Speed {m/s}
  150,                                    !- Wind Direction {deg}
  ,                                       !- Sky Clearness
  No,                                     !- Rain Indicator
  No,                                     !- Snow Indicator
  21,                                     !- Day of Month
  7,                                      !- Month
  SummerDesignDay,                        !- Day Type
  No,                                     !- Daylight Saving Time Indicator
  Dewpoint,                               !- Humidity Condition Type
  ,                                       !- Humidity Condition Day Schedule Name
  18.7,                                   !- Wetbulb or DewPoint at Maximum Dry-Bulb {C}
  ,                                       !- Humidity Ratio at Maximum Dry-Bulb {kgWater/kgDryAir}
  ,                                       !- Enthalpy at Maximum Dry-Bulb {J/kg}
  DefaultMultipliers,                     !- Dry-Bulb Temperature Range Modifier Type
  ,                                       !- Dry-Bulb Temperature Range Modifier Day Schedule Name
  ASHRAETau,                              !- Solar Model Indicator
  ,                                       !- Beam Solar Day Schedule Name
  ,                                       !- Diffuse Solar Day Schedule Name
  0.364,                                  !- ASHRAE Clear Sky Optical Depth for Beam Irradiance {dimensionless}
  2.504;                                  !- ASHRAE Clear Sky Optical Depth for Diffuse Irradiance {dimensionless}

OS:SizingPeriod:DesignDay,
  {58d2194e-dc7a-4d10-b78e-5c075fa8f69b}, !- Handle
  Red Bluff Municipal Arpt Ann Clg .4% Condns Enth=>MDB, !- Name
  35.9,                                   !- Maximum Dry-Bulb Temperature {C}
  16.9,                                   !- Daily Dry-Bulb Temperature Range {deltaC}
  100058,                                 !- Barometric Pressure {Pa}
  3.9,                                    !- Wind Speed {m/s}
  150,                                    !- Wind Direction {deg}
  ,                                       !- Sky Clearness
  No,                                     !- Rain Indicator
  No,                                     !- Snow Indicator
  21,                                     !- Day of Month
  7,                                      !- Month
  SummerDesignDay,                        !- Day Type
  No,                                     !- Daylight Saving Time Indicator
  Enthalpy,                               !- Humidity Condition Type
  ,                                       !- Humidity Condition Day Schedule Name
  23,                                     !- Wetbulb or DewPoint at Maximum Dry-Bulb {C}
  ,                                       !- Humidity Ratio at Maximum Dry-Bulb {kgWater/kgDryAir}
  67200,                                  !- Enthalpy at Maximum Dry-Bulb {J/kg}
  DefaultMultipliers,                     !- Dry-Bulb Temperature Range Modifier Type
  ,                                       !- Dry-Bulb Temperature Range Modifier Day Schedule Name
  ASHRAETau,                              !- Solar Model Indicator
  ,                                       !- Beam Solar Day Schedule Name
  ,                                       !- Diffuse Solar Day Schedule Name
  0.364,                                  !- ASHRAE Clear Sky Optical Depth for Beam Irradiance {dimensionless}
  2.504;                                  !- ASHRAE Clear Sky Optical Depth for Diffuse Irradiance {dimensionless}

OS:Rendering:Color,
  {17123c7e-534e-4028-baad-eb06b923717d}, !- Handle
  Rendering Color 1,                      !- Name
  51,                                     !- Rendering Red Value
  34,                                     !- Rendering Green Value
  136,                                    !- Rendering Blue Value
  255;                                    !- Rendering Alpha Value

OS:Rendering:Color,
  {2a5c239a-6912-48f2-b96d-8c33ee6a6db7}, !- Handle
  Rendering Color 2,                      !- Name
  17,                                     !- Rendering Red Value
  119,                                    !- Rendering Green Value
  51,                                     !- Rendering Blue Value
  255;                                    !- Rendering Alpha Value

OS:Rendering:Color,
  {02822c93-799a-4abc-b289-ddb41f0ff22b}, !- Handle
  Rendering Color 3,                      !- Name
  153,                                    !- Rendering Red Value
  153,                                    !- Rendering Green Value
  51,                                     !- Rendering Blue Value
  255;                                    !- Rendering Alpha Value

OS:Rendering:Color,
  {5d677f48-9e89-407e-9bda-0bfbec879106}, !- Handle
  Rendering Color 4,                      !- Name
  221,                                    !- Rendering Red Value
  204,                                    !- Rendering Green Value
  119,                                    !- Rendering Blue Value
  255;                                    !- Rendering Alpha Value

OS:BuildingStory,
  {7f861c9a-f68f-420f-a31e-96b3bfc01408}, !- Handle
  Story 1,                                !- Name
  0,                                      !- Nominal Z Coordinate {m}
  4,                                      !- Nominal Floor to Floor Height {m}
  ,                                       !- Default Construction Set Name
  ,                                       !- Default Schedule Set Name
  {17c602a6-0a03-411a-8b43-964a596d09ff}, !- Group Rendering Name
  4;                                      !- Nominal Floor to Ceiling Height {m}

OS:Rendering:Color,
  {17c602a6-0a03-411a-8b43-964a596d09ff}, !- Handle
  Rendering Color 5,                      !- Name
  51,                                     !- Rendering Red Value
  34,                                     !- Rendering Green Value
  136,                                    !- Rendering Blue Value
  255;                                    !- Rendering Alpha Value

OS:Space,
  {361d0fc7-1aa2-4f57-8c68-5483d5ac25ca}, !- Handle
  Space 1 - 4,                            !- Name
  ,                                       !- Space Type Name
  ,                                       !- Default Construction Set Name
  ,                                       !- Default Schedule Set Name
  ,                                       !- Direction of Relative North {deg}
  ,                                       !- X Origin {m}
  ,                                       !- Y Origin {m}
  ,                                       !- Z Origin {m}
  {7f861c9a-f68f-420f-a31e-96b3bfc01408}, !- Building Story Name
  ,                                       !- Thermal Zone Name
  ,                                       !- Part of Total Floor Area
  ,                                       !- Design Specification Outdoor Air Object Name
  ;                                       !- Building Unit Name

OS:Space,
  {6d846d92-7176-4416-86e7-04ae69e1c107}, !- Handle
  Space 2 - 9,                            !- Name
  ,                                       !- Space Type Name
  ,                                       !- Default Construction Set Name
  ,                                       !- Default Schedule Set Name
  ,                                       !- Direction of Relative North {deg}
  ,                                       !- X Origin {m}
  ,                                       !- Y Origin {m}
  ,                                       !- Z Origin {m}
  {de7907f1-0ffc-41a2-a4ff-105b4f672e16}, !- Building Story Name
  ,                                       !- Thermal Zone Name
  ,                                       !- Part of Total Floor Area
  ,                                       !- Design Specification Outdoor Air Object Name
  ;                                       !- Building Unit Name

OS:BuildingStory,
  {de7907f1-0ffc-41a2-a4ff-105b4f672e16}, !- Handle
  Story 2,                                !- Name
  4,                                      !- Nominal Z Coordinate {m}
  4,                                      !- Nominal Floor to Floor Height {m}
  ,                                       !- Default Construction Set Name
  ,                                       !- Default Schedule Set Name
  {c351b024-6577-452f-ad29-88490db63d35}, !- Group Rendering Name
  4;                                      !- Nominal Floor to Ceiling Height {m}

OS:Rendering:Color,
  {c351b024-6577-452f-ad29-88490db63d35}, !- Handle
  Rendering Color 6,                      !- Name
  17,                                     !- Rendering Red Value
  119,                                    !- Rendering Green Value
  51,                                     !- Rendering Blue Value
  255;                                    !- Rendering Alpha Value

OS:Space,
  {62dd3b7f-6c66-4a7c-b8ca-0b9de631b903}, !- Handle
  Space 1 - 1,                            !- Name
  ,                                       !- Space Type Name
  ,                                       !- Default Construction Set Name
  ,                                       !- Default Schedule Set Name
  ,                                       !- Direction of Relative North {deg}
  ,                                       !- X Origin {m}
  ,                                       !- Y Origin {m}
  ,                                       !- Z Origin {m}
  {7f861c9a-f68f-420f-a31e-96b3bfc01408}, !- Building Story Name
  ,                                       !- Thermal Zone Name
  ,                                       !- Part of Total Floor Area
  ,                                       !- Design Specification Outdoor Air Object Name
  ;                                       !- Building Unit Name

OS:Space,
  {d396f4a2-26cb-4708-8a20-ab5483f8f122}, !- Handle
  Space 2 - 3,                            !- Name
  ,                                       !- Space Type Name
  ,                                       !- Default Construction Set Name
  ,                                       !- Default Schedule Set Name
  ,                                       !- Direction of Relative North {deg}
  ,                                       !- X Origin {m}
  ,                                       !- Y Origin {m}
  ,                                       !- Z Origin {m}
  {de7907f1-0ffc-41a2-a4ff-105b4f672e16}, !- Building Story Name
  ,                                       !- Thermal Zone Name
  ,                                       !- Part of Total Floor Area
  ,                                       !- Design Specification Outdoor Air Object Name
  ;                                       !- Building Unit Name

OS:Space,
  {3273efea-4b85-4fa2-a587-52b1394adb3e}, !- Handle
  Space 1 - 5,                            !- Name
  ,                                       !- Space Type Name
  ,                                       !- Default Construction Set Name
  ,                                       !- Default Schedule Set Name
  ,                                       !- Direction of Relative North {deg}
  ,                                       !- X Origin {m}
  ,                                       !- Y Origin {m}
  ,                                       !- Z Origin {m}
  {7f861c9a-f68f-420f-a31e-96b3bfc01408}, !- Building Story Name
  ,                                       !- Thermal Zone Name
  ,                                       !- Part of Total Floor Area
  ,                                       !- Design Specification Outdoor Air Object Name
  ;                                       !- Building Unit Name

OS:Space,
  {11f1dd5f-7a42-446d-b775-ced5d652b2e7}, !- Handle
  Space 1 - 2,                            !- Name
  ,                                       !- Space Type Name
  ,                                       !- Default Construction Set Name
  ,                                       !- Default Schedule Set Name
  ,                                       !- Direction of Relative North {deg}
  ,                                       !- X Origin {m}
  ,                                       !- Y Origin {m}
  ,                                       !- Z Origin {m}
  {7f861c9a-f68f-420f-a31e-96b3bfc01408}, !- Building Story Name
  ,                                       !- Thermal Zone Name
  ,                                       !- Part of Total Floor Area
  ,                                       !- Design Specification Outdoor Air Object Name
  ;                                       !- Building Unit Name

OS:Space,
  {c7be2cc9-3f61-480a-8171-84184290c8a1}, !- Handle
  Space 1 - 3,                            !- Name
  ,                                       !- Space Type Name
  ,                                       !- Default Construction Set Name
  ,                                       !- Default Schedule Set Name
  ,                                       !- Direction of Relative North {deg}
  ,                                       !- X Origin {m}
  ,                                       !- Y Origin {m}
  ,                                       !- Z Origin {m}
  {7f861c9a-f68f-420f-a31e-96b3bfc01408}, !- Building Story Name
  ,                                       !- Thermal Zone Name
  ,                                       !- Part of Total Floor Area
  ,                                       !- Design Specification Outdoor Air Object Name
  ;                                       !- Building Unit Name

OS:Space,
  {ab258c4d-3158-4754-9baf-e97e22572ab1}, !- Handle
  Space 2 - 2,                            !- Name
  ,                                       !- Space Type Name
  ,                                       !- Default Construction Set Name
  ,                                       !- Default Schedule Set Name
  ,                                       !- Direction of Relative North {deg}
  ,                                       !- X Origin {m}
  ,                                       !- Y Origin {m}
  ,                                       !- Z Origin {m}
  {de7907f1-0ffc-41a2-a4ff-105b4f672e16}, !- Building Story Name
  ,                                       !- Thermal Zone Name
  ,                                       !- Part of Total Floor Area
  ,                                       !- Design Specification Outdoor Air Object Name
  ;                                       !- Building Unit Name

OS:Space,
  {45a37c08-5644-4c9f-ace5-578d19d418e4}, !- Handle
  Space 2 - 1,                            !- Name
  ,                                       !- Space Type Name
  ,                                       !- Default Construction Set Name
  ,                                       !- Default Schedule Set Name
  ,                                       !- Direction of Relative North {deg}